
---------- Begin Simulation Statistics ----------
sim_seconds                                  0.090328                       # Number of seconds simulated
sim_ticks                                 90327654000                       # Number of ticks simulated
final_tick                                90327654000                       # Number of ticks from beginning of simulation (restored from checkpoints and never reset)
sim_freq                                 1000000000000                       # Frequency of simulated ticks
host_inst_rate                                1254042                       # Simulator instruction rate (inst/s)
host_op_rate                                  2064805                       # Simulator op (including micro ops) rate (op/s)
host_tick_rate                             2540375430                       # Simulator tick rate (ticks/s)
host_mem_usage                                 661232                       # Number of bytes of host memory used
host_seconds                                    35.56                       # Real time elapsed on the host
sim_insts                                    44589715                       # Number of instructions simulated
sim_ops                                      73417860                       # Number of ops (including micro ops) simulated
system.voltage_domain.voltage                       1                       # Voltage in Volts
system.clk_domain.clock                          1000                       # Clock period in ticks
system.mem_ctrls.pwrStateResidencyTicks::UNDEFINED  90327654000                       # Cumulative time (in ticks) in various power states
system.mem_ctrls.bytes_read::cpu.inst           22784                       # Number of bytes read from this memory
system.mem_ctrls.bytes_read::cpu.data          815744                       # Number of bytes read from this memory
system.mem_ctrls.bytes_read::total             838528                       # Number of bytes read from this memory
system.mem_ctrls.bytes_inst_read::cpu.inst        22784                       # Number of instructions bytes read from this memory
system.mem_ctrls.bytes_inst_read::total         22784                       # Number of instructions bytes read from this memory
system.mem_ctrls.bytes_written::writebacks       488192                       # Number of bytes written to this memory
system.mem_ctrls.bytes_written::total          488192                       # Number of bytes written to this memory
system.mem_ctrls.num_reads::cpu.inst              356                       # Number of read requests responded to by this memory
system.mem_ctrls.num_reads::cpu.data            12746                       # Number of read requests responded to by this memory
system.mem_ctrls.num_reads::total               13102                       # Number of read requests responded to by this memory
system.mem_ctrls.num_writes::writebacks          7628                       # Number of write requests responded to by this memory
system.mem_ctrls.num_writes::total               7628                       # Number of write requests responded to by this memory
system.mem_ctrls.bw_read::cpu.inst             252237                       # Total read bandwidth from this memory (bytes/s)
system.mem_ctrls.bw_read::cpu.data            9030944                       # Total read bandwidth from this memory (bytes/s)
system.mem_ctrls.bw_read::total               9283181                       # Total read bandwidth from this memory (bytes/s)
system.mem_ctrls.bw_inst_read::cpu.inst        252237                       # Instruction read bandwidth from this memory (bytes/s)
system.mem_ctrls.bw_inst_read::total           252237                       # Instruction read bandwidth from this memory (bytes/s)
system.mem_ctrls.bw_write::writebacks         5404679                       # Write bandwidth from this memory (bytes/s)
system.mem_ctrls.bw_write::total              5404679                       # Write bandwidth from this memory (bytes/s)
system.mem_ctrls.bw_total::writebacks         5404679                       # Total bandwidth to/from this memory (bytes/s)
system.mem_ctrls.bw_total::cpu.inst            252237                       # Total bandwidth to/from this memory (bytes/s)
system.mem_ctrls.bw_total::cpu.data           9030944                       # Total bandwidth to/from this memory (bytes/s)
system.mem_ctrls.bw_total::total             14687861                       # Total bandwidth to/from this memory (bytes/s)
system.pwrStateResidencyTicks::UNDEFINED  90327654000                       # Cumulative time (in ticks) in various power states
system.cpu_voltage_domain.voltage                   1                       # Voltage in Volts
system.cpu_clk_domain.clock                       500                       # Clock period in ticks
system.cpu.dtb.walker.pwrStateResidencyTicks::UNDEFINED  90327654000                       # Cumulative time (in ticks) in various power states
system.cpu.dtb.rdAccesses                    20877741                       # TLB accesses on read requests
system.cpu.dtb.wrAccesses                     5816541                       # TLB accesses on write requests
system.cpu.dtb.rdMisses                           166                       # TLB misses on read requests
system.cpu.dtb.wrMisses                           106                       # TLB misses on write requests
system.cpu.apic_clk_domain.clock                 8000                       # Clock period in ticks
system.cpu.interrupts.pwrStateResidencyTicks::UNDEFINED  90327654000                       # Cumulative time (in ticks) in various power states
system.cpu.itb.walker.pwrStateResidencyTicks::UNDEFINED  90327654000                       # Cumulative time (in ticks) in various power states
system.cpu.itb.rdAccesses                           0                       # TLB accesses on read requests
system.cpu.itb.wrAccesses                    59916909                       # TLB accesses on write requests
system.cpu.itb.rdMisses                             0                       # TLB misses on read requests
system.cpu.itb.wrMisses                            36                       # TLB misses on write requests
system.cpu.workload.numSyscalls                     9                       # Number of system calls
system.cpu.pwrStateResidencyTicks::ON     90327654000                       # Cumulative time (in ticks) in various power states
system.cpu.numCycles                        180655308                       # number of cpu cycles simulated
system.cpu.numWorkItemsStarted                      0                       # number of work items this cpu started
system.cpu.numWorkItemsCompleted                    0                       # number of work items this cpu completed
system.cpu.committedInsts                    44589715                       # Number of instructions committed
system.cpu.committedOps                      73417860                       # Number of ops (including micro ops) committed
system.cpu.num_int_alu_accesses              72895936                       # Number of integer alu accesses
system.cpu.num_fp_alu_accesses                   1959                       # Number of float alu accesses
system.cpu.num_vec_alu_accesses                     0                       # Number of vector alu accesses
system.cpu.num_func_calls                      944900                       # number of times a function call or return occured
system.cpu.num_conditional_control_insts      4232452                       # number of instructions that are conditional controls
system.cpu.num_int_insts                     72895936                       # number of integer instructions
system.cpu.num_fp_insts                          1959                       # number of float instructions
system.cpu.num_vec_insts                            0                       # number of vector instructions
system.cpu.num_int_register_reads           163691601                       # number of times the integer registers were read
system.cpu.num_int_register_writes           63686411                       # number of times the integer registers were written
system.cpu.num_fp_register_reads                 3779                       # number of times the floating registers were read
system.cpu.num_fp_register_writes                1484                       # number of times the floating registers were written
system.cpu.num_vec_register_reads                   0                       # number of times the vector registers were read
system.cpu.num_vec_register_writes                  0                       # number of times the vector registers were written
system.cpu.num_cc_register_reads             27636619                       # number of times the CC registers were read
system.cpu.num_cc_register_writes            24933085                       # number of times the CC registers were written
system.cpu.num_mem_refs                      26694277                       # number of memory refs
system.cpu.num_load_insts                    20877737                       # Number of load instructions
system.cpu.num_store_insts                    5816540                       # Number of store instructions
system.cpu.num_idle_cycles                          0                       # Number of idle cycles
system.cpu.num_busy_cycles                  180655308                       # Number of busy cycles
system.cpu.not_idle_fraction                        1                       # Percentage of non-idle cycles
system.cpu.idle_fraction                            0                       # Percentage of idle cycles
system.cpu.Branches                           5574736                       # Number of branches fetched
system.cpu.op_class::No_OpClass                175846      0.24%      0.24% # Class of executed instruction
system.cpu.op_class::IntAlu                  45543779     62.03%     62.27% # Class of executed instruction
system.cpu.op_class::IntMult                        4      0.00%     62.27% # Class of executed instruction
system.cpu.op_class::IntDiv                   1002994      1.37%     63.64% # Class of executed instruction
system.cpu.op_class::FloatAdd                      10      0.00%     63.64% # Class of executed instruction
system.cpu.op_class::FloatCmp                       0      0.00%     63.64% # Class of executed instruction
system.cpu.op_class::FloatCvt                       0      0.00%     63.64% # Class of executed instruction
system.cpu.op_class::FloatMult                      0      0.00%     63.64% # Class of executed instruction
system.cpu.op_class::FloatMultAcc                   0      0.00%     63.64% # Class of executed instruction
system.cpu.op_class::FloatDiv                       0      0.00%     63.64% # Class of executed instruction
system.cpu.op_class::FloatMisc                      0      0.00%     63.64% # Class of executed instruction
system.cpu.op_class::FloatSqrt                      0      0.00%     63.64% # Class of executed instruction
system.cpu.op_class::SimdAdd                      374      0.00%     63.64% # Class of executed instruction
system.cpu.op_class::SimdAddAcc                     0      0.00%     63.64% # Class of executed instruction
system.cpu.op_class::SimdAlu                       68      0.00%     63.64% # Class of executed instruction
system.cpu.op_class::SimdCmp                        0      0.00%     63.64% # Class of executed instruction
system.cpu.op_class::SimdCvt                      108      0.00%     63.64% # Class of executed instruction
system.cpu.op_class::SimdMisc                     214      0.00%     63.64% # Class of executed instruction
system.cpu.op_class::SimdMult                       0      0.00%     63.64% # Class of executed instruction
system.cpu.op_class::SimdMultAcc                    0      0.00%     63.64% # Class of executed instruction
system.cpu.op_class::SimdShift                    186      0.00%     63.64% # Class of executed instruction
system.cpu.op_class::SimdShiftAcc                   0      0.00%     63.64% # Class of executed instruction
system.cpu.op_class::SimdSqrt                       0      0.00%     63.64% # Class of executed instruction
system.cpu.op_class::SimdFloatAdd                   0      0.00%     63.64% # Class of executed instruction
system.cpu.op_class::SimdFloatAlu                   0      0.00%     63.64% # Class of executed instruction
system.cpu.op_class::SimdFloatCmp                   0      0.00%     63.64% # Class of executed instruction
system.cpu.op_class::SimdFloatCvt                   0      0.00%     63.64% # Class of executed instruction
system.cpu.op_class::SimdFloatDiv                   0      0.00%     63.64% # Class of executed instruction
system.cpu.op_class::SimdFloatMisc                  0      0.00%     63.64% # Class of executed instruction
system.cpu.op_class::SimdFloatMult                  0      0.00%     63.64% # Class of executed instruction
system.cpu.op_class::SimdFloatMultAcc               0      0.00%     63.64% # Class of executed instruction
system.cpu.op_class::SimdFloatSqrt                  0      0.00%     63.64% # Class of executed instruction
system.cpu.op_class::MemRead                 20877677     28.44%     92.08% # Class of executed instruction
system.cpu.op_class::MemWrite                 5816113      7.92%    100.00% # Class of executed instruction
system.cpu.op_class::FloatMemRead                  60      0.00%    100.00% # Class of executed instruction
system.cpu.op_class::FloatMemWrite                427      0.00%    100.00% # Class of executed instruction
system.cpu.op_class::IprAccess                      0      0.00%    100.00% # Class of executed instruction
system.cpu.op_class::InstPrefetch                   0      0.00%    100.00% # Class of executed instruction
system.cpu.op_class::total                   73417860                       # Class of executed instruction
system.cpu.dcache.tags.pwrStateResidencyTicks::UNDEFINED  90327654000                       # Cumulative time (in ticks) in various power states
system.cpu.dcache.tags.tagsinuse           510.008616                       # Cycle average of tags in use
system.cpu.dcache.tags.total_refs            26694282                       # Total number of references to valid blocks.
system.cpu.dcache.tags.sampled_refs             45427                       # Sample count of references to valid blocks.
system.cpu.dcache.tags.avg_refs            587.630308                       # Average number of references to valid blocks.
system.cpu.dcache.tags.warmup_cycle            759000                       # Cycle when the warmup percentage was hit.
system.cpu.dcache.tags.occ_blocks::cpu.data   510.008616                       # Average occupied blocks per requestor
system.cpu.dcache.tags.occ_percent::cpu.data     0.996111                       # Average percentage of cache occupancy
system.cpu.dcache.tags.occ_percent::total     0.996111                       # Average percentage of cache occupancy
system.cpu.dcache.tags.occ_task_id_blocks::1024          512                       # Occupied blocks per task id
system.cpu.dcache.tags.age_task_id_blocks_1024::0           15                       # Occupied blocks per task id
system.cpu.dcache.tags.age_task_id_blocks_1024::1           12                       # Occupied blocks per task id
system.cpu.dcache.tags.age_task_id_blocks_1024::2           33                       # Occupied blocks per task id
system.cpu.dcache.tags.age_task_id_blocks_1024::3          450                       # Occupied blocks per task id
system.cpu.dcache.tags.age_task_id_blocks_1024::4            2                       # Occupied blocks per task id
system.cpu.dcache.tags.occ_task_id_percent::1024            1                       # Percentage of cache occupancy per task id
system.cpu.dcache.tags.tag_accesses          53433991                       # Number of tag accesses
system.cpu.dcache.tags.data_accesses         53433991                       # Number of data accesses
system.cpu.dcache.pwrStateResidencyTicks::UNDEFINED  90327654000                       # Cumulative time (in ticks) in various power states
system.cpu.dcache.ReadReq_hits::cpu.data     20839012                       # number of ReadReq hits
system.cpu.dcache.ReadReq_hits::total        20839012                       # number of ReadReq hits
system.cpu.dcache.WriteReq_hits::cpu.data      5799774                       # number of WriteReq hits
system.cpu.dcache.WriteReq_hits::total        5799774                       # number of WriteReq hits
system.cpu.dcache.demand_hits::cpu.data      26638786                       # number of demand (read+write) hits
system.cpu.dcache.demand_hits::total         26638786                       # number of demand (read+write) hits
system.cpu.dcache.overall_hits::cpu.data     26638786                       # number of overall hits
system.cpu.dcache.overall_hits::total        26638786                       # number of overall hits
system.cpu.dcache.ReadReq_misses::cpu.data        38729                       # number of ReadReq misses
system.cpu.dcache.ReadReq_misses::total         38729                       # number of ReadReq misses
system.cpu.dcache.WriteReq_misses::cpu.data        16767                       # number of WriteReq misses
system.cpu.dcache.WriteReq_misses::total        16767                       # number of WriteReq misses
system.cpu.dcache.demand_misses::cpu.data        55496                       # number of demand (read+write) misses
system.cpu.dcache.demand_misses::total          55496                       # number of demand (read+write) misses
system.cpu.dcache.overall_misses::cpu.data        55496                       # number of overall misses
system.cpu.dcache.overall_misses::total         55496                       # number of overall misses
system.cpu.dcache.ReadReq_miss_latency::cpu.data   2839309000                       # number of ReadReq miss cycles
system.cpu.dcache.ReadReq_miss_latency::total   2839309000                       # number of ReadReq miss cycles
system.cpu.dcache.WriteReq_miss_latency::cpu.data    874433000                       # number of WriteReq miss cycles
system.cpu.dcache.WriteReq_miss_latency::total    874433000                       # number of WriteReq miss cycles
system.cpu.dcache.demand_miss_latency::cpu.data   3713742000                       # number of demand (read+write) miss cycles
system.cpu.dcache.demand_miss_latency::total   3713742000                       # number of demand (read+write) miss cycles
system.cpu.dcache.overall_miss_latency::cpu.data   3713742000                       # number of overall miss cycles
system.cpu.dcache.overall_miss_latency::total   3713742000                       # number of overall miss cycles
system.cpu.dcache.ReadReq_accesses::cpu.data     20877741                       # number of ReadReq accesses(hits+misses)
system.cpu.dcache.ReadReq_accesses::total     20877741                       # number of ReadReq accesses(hits+misses)
system.cpu.dcache.WriteReq_accesses::cpu.data      5816541                       # number of WriteReq accesses(hits+misses)
system.cpu.dcache.WriteReq_accesses::total      5816541                       # number of WriteReq accesses(hits+misses)
system.cpu.dcache.demand_accesses::cpu.data     26694282                       # number of demand (read+write) accesses
system.cpu.dcache.demand_accesses::total     26694282                       # number of demand (read+write) accesses
system.cpu.dcache.overall_accesses::cpu.data     26694282                       # number of overall (read+write) accesses
system.cpu.dcache.overall_accesses::total     26694282                       # number of overall (read+write) accesses
system.cpu.dcache.ReadReq_miss_rate::cpu.data     0.001855                       # miss rate for ReadReq accesses
system.cpu.dcache.ReadReq_miss_rate::total     0.001855                       # miss rate for ReadReq accesses
system.cpu.dcache.WriteReq_miss_rate::cpu.data     0.002883                       # miss rate for WriteReq accesses
system.cpu.dcache.WriteReq_miss_rate::total     0.002883                       # miss rate for WriteReq accesses
system.cpu.dcache.demand_miss_rate::cpu.data     0.002079                       # miss rate for demand accesses
system.cpu.dcache.demand_miss_rate::total     0.002079                       # miss rate for demand accesses
system.cpu.dcache.overall_miss_rate::cpu.data     0.002079                       # miss rate for overall accesses
system.cpu.dcache.overall_miss_rate::total     0.002079                       # miss rate for overall accesses
system.cpu.dcache.ReadReq_avg_miss_latency::cpu.data 73312.220816                       # average ReadReq miss latency
system.cpu.dcache.ReadReq_avg_miss_latency::total 73312.220816                       # average ReadReq miss latency
system.cpu.dcache.WriteReq_avg_miss_latency::cpu.data 52152.024811                       # average WriteReq miss latency
system.cpu.dcache.WriteReq_avg_miss_latency::total 52152.024811                       # average WriteReq miss latency
system.cpu.dcache.demand_avg_miss_latency::cpu.data 66919.093268                       # average overall miss latency
system.cpu.dcache.demand_avg_miss_latency::total 66919.093268                       # average overall miss latency
system.cpu.dcache.overall_avg_miss_latency::cpu.data 66919.093268                       # average overall miss latency
system.cpu.dcache.overall_avg_miss_latency::total 66919.093268                       # average overall miss latency
system.cpu.dcache.blocked_cycles::no_mshrs            0                       # number of cycles access was blocked
system.cpu.dcache.blocked_cycles::no_targets            0                       # number of cycles access was blocked
system.cpu.dcache.blocked::no_mshrs                 0                       # number of cycles access was blocked
system.cpu.dcache.blocked::no_targets               0                       # number of cycles access was blocked
system.cpu.dcache.avg_blocked_cycles::no_mshrs          nan                       # average number of cycles each access was blocked
system.cpu.dcache.avg_blocked_cycles::no_targets          nan                       # average number of cycles each access was blocked
system.cpu.dcache.writebacks::writebacks        43415                       # number of writebacks
system.cpu.dcache.writebacks::total             43415                       # number of writebacks
system.cpu.dcache.ReadReq_mshr_misses::cpu.data        38729                       # number of ReadReq MSHR misses
system.cpu.dcache.ReadReq_mshr_misses::total        38729                       # number of ReadReq MSHR misses
system.cpu.dcache.WriteReq_mshr_misses::cpu.data        16767                       # number of WriteReq MSHR misses
system.cpu.dcache.WriteReq_mshr_misses::total        16767                       # number of WriteReq MSHR misses
system.cpu.dcache.demand_mshr_misses::cpu.data        55496                       # number of demand (read+write) MSHR misses
system.cpu.dcache.demand_mshr_misses::total        55496                       # number of demand (read+write) MSHR misses
system.cpu.dcache.overall_mshr_misses::cpu.data        55496                       # number of overall MSHR misses
system.cpu.dcache.overall_mshr_misses::total        55496                       # number of overall MSHR misses
system.cpu.dcache.ReadReq_mshr_miss_latency::cpu.data   2800580000                       # number of ReadReq MSHR miss cycles
system.cpu.dcache.ReadReq_mshr_miss_latency::total   2800580000                       # number of ReadReq MSHR miss cycles
system.cpu.dcache.WriteReq_mshr_miss_latency::cpu.data    857666000                       # number of WriteReq MSHR miss cycles
system.cpu.dcache.WriteReq_mshr_miss_latency::total    857666000                       # number of WriteReq MSHR miss cycles
system.cpu.dcache.demand_mshr_miss_latency::cpu.data   3658246000                       # number of demand (read+write) MSHR miss cycles
system.cpu.dcache.demand_mshr_miss_latency::total   3658246000                       # number of demand (read+write) MSHR miss cycles
system.cpu.dcache.overall_mshr_miss_latency::cpu.data   3658246000                       # number of overall MSHR miss cycles
system.cpu.dcache.overall_mshr_miss_latency::total   3658246000                       # number of overall MSHR miss cycles
system.cpu.dcache.ReadReq_mshr_miss_rate::cpu.data     0.001855                       # mshr miss rate for ReadReq accesses
system.cpu.dcache.ReadReq_mshr_miss_rate::total     0.001855                       # mshr miss rate for ReadReq accesses
system.cpu.dcache.WriteReq_mshr_miss_rate::cpu.data     0.002883                       # mshr miss rate for WriteReq accesses
system.cpu.dcache.WriteReq_mshr_miss_rate::total     0.002883                       # mshr miss rate for WriteReq accesses
system.cpu.dcache.demand_mshr_miss_rate::cpu.data     0.002079                       # mshr miss rate for demand accesses
system.cpu.dcache.demand_mshr_miss_rate::total     0.002079                       # mshr miss rate for demand accesses
system.cpu.dcache.overall_mshr_miss_rate::cpu.data     0.002079                       # mshr miss rate for overall accesses
system.cpu.dcache.overall_mshr_miss_rate::total     0.002079                       # mshr miss rate for overall accesses
system.cpu.dcache.ReadReq_avg_mshr_miss_latency::cpu.data 72312.220816                       # average ReadReq mshr miss latency
system.cpu.dcache.ReadReq_avg_mshr_miss_latency::total 72312.220816                       # average ReadReq mshr miss latency
system.cpu.dcache.WriteReq_avg_mshr_miss_latency::cpu.data 51152.024811                       # average WriteReq mshr miss latency
system.cpu.dcache.WriteReq_avg_mshr_miss_latency::total 51152.024811                       # average WriteReq mshr miss latency
system.cpu.dcache.demand_avg_mshr_miss_latency::cpu.data 65919.093268                       # average overall mshr miss latency
system.cpu.dcache.demand_avg_mshr_miss_latency::total 65919.093268                       # average overall mshr miss latency
system.cpu.dcache.overall_avg_mshr_miss_latency::cpu.data 65919.093268                       # average overall mshr miss latency
system.cpu.dcache.overall_avg_mshr_miss_latency::total 65919.093268                       # average overall mshr miss latency
system.cpu.dcache.replacements                  44915                       # number of replacements
system.cpu.dtb_walker_cache.tags.pwrStateResidencyTicks::UNDEFINED  90327654000                       # Cumulative time (in ticks) in various power states
system.cpu.dtb_walker_cache.tags.tagsinuse            0                       # Cycle average of tags in use
system.cpu.dtb_walker_cache.tags.total_refs            0                       # Total number of references to valid blocks.
system.cpu.dtb_walker_cache.tags.sampled_refs            0                       # Sample count of references to valid blocks.
system.cpu.dtb_walker_cache.tags.avg_refs          nan                       # Average number of references to valid blocks.
system.cpu.dtb_walker_cache.tags.warmup_cycle            0                       # Cycle when the warmup percentage was hit.
system.cpu.dtb_walker_cache.tags.tag_accesses            0                       # Number of tag accesses
system.cpu.dtb_walker_cache.tags.data_accesses            0                       # Number of data accesses
system.cpu.dtb_walker_cache.pwrStateResidencyTicks::UNDEFINED  90327654000                       # Cumulative time (in ticks) in various power states
system.cpu.dtb_walker_cache.blocked_cycles::no_mshrs            0                       # number of cycles access was blocked
system.cpu.dtb_walker_cache.blocked_cycles::no_targets            0                       # number of cycles access was blocked
system.cpu.dtb_walker_cache.blocked::no_mshrs            0                       # number of cycles access was blocked
system.cpu.dtb_walker_cache.blocked::no_targets            0                       # number of cycles access was blocked
system.cpu.dtb_walker_cache.avg_blocked_cycles::no_mshrs          nan                       # average number of cycles each access was blocked
system.cpu.dtb_walker_cache.avg_blocked_cycles::no_targets          nan                       # average number of cycles each access was blocked
system.cpu.dtb_walker_cache.replacements            0                       # number of replacements
system.cpu.icache.tags.pwrStateResidencyTicks::UNDEFINED  90327654000                       # Cumulative time (in ticks) in various power states
system.cpu.icache.tags.tagsinuse           281.280280                       # Cycle average of tags in use
system.cpu.icache.tags.total_refs            59916909                       # Total number of references to valid blocks.
system.cpu.icache.tags.sampled_refs               356                       # Sample count of references to valid blocks.
system.cpu.icache.tags.avg_refs          168305.924157                       # Average number of references to valid blocks.
system.cpu.icache.tags.warmup_cycle            439000                       # Cycle when the warmup percentage was hit.
system.cpu.icache.tags.occ_blocks::cpu.inst   281.280280                       # Average occupied blocks per requestor
system.cpu.icache.tags.occ_percent::cpu.inst     0.549376                       # Average percentage of cache occupancy
system.cpu.icache.tags.occ_percent::total     0.549376                       # Average percentage of cache occupancy
system.cpu.icache.tags.occ_task_id_blocks::1024          310                       # Occupied blocks per task id
system.cpu.icache.tags.age_task_id_blocks_1024::0           28                       # Occupied blocks per task id
system.cpu.icache.tags.age_task_id_blocks_1024::1           10                       # Occupied blocks per task id
system.cpu.icache.tags.age_task_id_blocks_1024::4          272                       # Occupied blocks per task id
system.cpu.icache.tags.occ_task_id_percent::1024     0.605469                       # Percentage of cache occupancy per task id
system.cpu.icache.tags.tag_accesses         119834174                       # Number of tag accesses
system.cpu.icache.tags.data_accesses        119834174                       # Number of data accesses
system.cpu.icache.pwrStateResidencyTicks::UNDEFINED  90327654000                       # Cumulative time (in ticks) in various power states
system.cpu.icache.ReadReq_hits::cpu.inst     59916553                       # number of ReadReq hits
system.cpu.icache.ReadReq_hits::total        59916553                       # number of ReadReq hits
system.cpu.icache.demand_hits::cpu.inst      59916553                       # number of demand (read+write) hits
system.cpu.icache.demand_hits::total         59916553                       # number of demand (read+write) hits
system.cpu.icache.overall_hits::cpu.inst     59916553                       # number of overall hits
system.cpu.icache.overall_hits::total        59916553                       # number of overall hits
system.cpu.icache.ReadReq_misses::cpu.inst          356                       # number of ReadReq misses
system.cpu.icache.ReadReq_misses::total           356                       # number of ReadReq misses
system.cpu.icache.demand_misses::cpu.inst          356                       # number of demand (read+write) misses
system.cpu.icache.demand_misses::total            356                       # number of demand (read+write) misses
system.cpu.icache.overall_misses::cpu.inst          356                       # number of overall misses
system.cpu.icache.overall_misses::total           356                       # number of overall misses
system.cpu.icache.ReadReq_miss_latency::cpu.inst     58577000                       # number of ReadReq miss cycles
system.cpu.icache.ReadReq_miss_latency::total     58577000                       # number of ReadReq miss cycles
system.cpu.icache.demand_miss_latency::cpu.inst     58577000                       # number of demand (read+write) miss cycles
system.cpu.icache.demand_miss_latency::total     58577000                       # number of demand (read+write) miss cycles
system.cpu.icache.overall_miss_latency::cpu.inst     58577000                       # number of overall miss cycles
system.cpu.icache.overall_miss_latency::total     58577000                       # number of overall miss cycles
system.cpu.icache.ReadReq_accesses::cpu.inst     59916909                       # number of ReadReq accesses(hits+misses)
system.cpu.icache.ReadReq_accesses::total     59916909                       # number of ReadReq accesses(hits+misses)
system.cpu.icache.demand_accesses::cpu.inst     59916909                       # number of demand (read+write) accesses
system.cpu.icache.demand_accesses::total     59916909                       # number of demand (read+write) accesses
system.cpu.icache.overall_accesses::cpu.inst     59916909                       # number of overall (read+write) accesses
system.cpu.icache.overall_accesses::total     59916909                       # number of overall (read+write) accesses
system.cpu.icache.ReadReq_miss_rate::cpu.inst     0.000006                       # miss rate for ReadReq accesses
system.cpu.icache.ReadReq_miss_rate::total     0.000006                       # miss rate for ReadReq accesses
system.cpu.icache.demand_miss_rate::cpu.inst     0.000006                       # miss rate for demand accesses
system.cpu.icache.demand_miss_rate::total     0.000006                       # miss rate for demand accesses
system.cpu.icache.overall_miss_rate::cpu.inst     0.000006                       # miss rate for overall accesses
system.cpu.icache.overall_miss_rate::total     0.000006                       # miss rate for overall accesses
system.cpu.icache.ReadReq_avg_miss_latency::cpu.inst 164542.134831                       # average ReadReq miss latency
system.cpu.icache.ReadReq_avg_miss_latency::total 164542.134831                       # average ReadReq miss latency
system.cpu.icache.demand_avg_miss_latency::cpu.inst 164542.134831                       # average overall miss latency
system.cpu.icache.demand_avg_miss_latency::total 164542.134831                       # average overall miss latency
system.cpu.icache.overall_avg_miss_latency::cpu.inst 164542.134831                       # average overall miss latency
system.cpu.icache.overall_avg_miss_latency::total 164542.134831                       # average overall miss latency
system.cpu.icache.blocked_cycles::no_mshrs            0                       # number of cycles access was blocked
system.cpu.icache.blocked_cycles::no_targets            0                       # number of cycles access was blocked
system.cpu.icache.blocked::no_mshrs                 0                       # number of cycles access was blocked
system.cpu.icache.blocked::no_targets               0                       # number of cycles access was blocked
system.cpu.icache.avg_blocked_cycles::no_mshrs          nan                       # average number of cycles each access was blocked
system.cpu.icache.avg_blocked_cycles::no_targets          nan                       # average number of cycles each access was blocked
system.cpu.icache.writebacks::writebacks           46                       # number of writebacks
system.cpu.icache.writebacks::total                46                       # number of writebacks
system.cpu.icache.ReadReq_mshr_misses::cpu.inst          356                       # number of ReadReq MSHR misses
system.cpu.icache.ReadReq_mshr_misses::total          356                       # number of ReadReq MSHR misses
system.cpu.icache.demand_mshr_misses::cpu.inst          356                       # number of demand (read+write) MSHR misses
system.cpu.icache.demand_mshr_misses::total          356                       # number of demand (read+write) MSHR misses
system.cpu.icache.overall_mshr_misses::cpu.inst          356                       # number of overall MSHR misses
system.cpu.icache.overall_mshr_misses::total          356                       # number of overall MSHR misses
system.cpu.icache.ReadReq_mshr_miss_latency::cpu.inst     58221000                       # number of ReadReq MSHR miss cycles
system.cpu.icache.ReadReq_mshr_miss_latency::total     58221000                       # number of ReadReq MSHR miss cycles
system.cpu.icache.demand_mshr_miss_latency::cpu.inst     58221000                       # number of demand (read+write) MSHR miss cycles
system.cpu.icache.demand_mshr_miss_latency::total     58221000                       # number of demand (read+write) MSHR miss cycles
system.cpu.icache.overall_mshr_miss_latency::cpu.inst     58221000                       # number of overall MSHR miss cycles
system.cpu.icache.overall_mshr_miss_latency::total     58221000                       # number of overall MSHR miss cycles
system.cpu.icache.ReadReq_mshr_miss_rate::cpu.inst     0.000006                       # mshr miss rate for ReadReq accesses
system.cpu.icache.ReadReq_mshr_miss_rate::total     0.000006                       # mshr miss rate for ReadReq accesses
system.cpu.icache.demand_mshr_miss_rate::cpu.inst     0.000006                       # mshr miss rate for demand accesses
system.cpu.icache.demand_mshr_miss_rate::total     0.000006                       # mshr miss rate for demand accesses
system.cpu.icache.overall_mshr_miss_rate::cpu.inst     0.000006                       # mshr miss rate for overall accesses
system.cpu.icache.overall_mshr_miss_rate::total     0.000006                       # mshr miss rate for overall accesses
system.cpu.icache.ReadReq_avg_mshr_miss_latency::cpu.inst 163542.134831                       # average ReadReq mshr miss latency
system.cpu.icache.ReadReq_avg_mshr_miss_latency::total 163542.134831                       # average ReadReq mshr miss latency
system.cpu.icache.demand_avg_mshr_miss_latency::cpu.inst 163542.134831                       # average overall mshr miss latency
system.cpu.icache.demand_avg_mshr_miss_latency::total 163542.134831                       # average overall mshr miss latency
system.cpu.icache.overall_avg_mshr_miss_latency::cpu.inst 163542.134831                       # average overall mshr miss latency
system.cpu.icache.overall_avg_mshr_miss_latency::total 163542.134831                       # average overall mshr miss latency
system.cpu.icache.replacements                     46                       # number of replacements
system.cpu.itb_walker_cache.tags.pwrStateResidencyTicks::UNDEFINED  90327654000                       # Cumulative time (in ticks) in various power states
system.cpu.itb_walker_cache.tags.tagsinuse            0                       # Cycle average of tags in use
system.cpu.itb_walker_cache.tags.total_refs            0                       # Total number of references to valid blocks.
system.cpu.itb_walker_cache.tags.sampled_refs            0                       # Sample count of references to valid blocks.
system.cpu.itb_walker_cache.tags.avg_refs          nan                       # Average number of references to valid blocks.
system.cpu.itb_walker_cache.tags.warmup_cycle            0                       # Cycle when the warmup percentage was hit.
system.cpu.itb_walker_cache.tags.tag_accesses            0                       # Number of tag accesses
system.cpu.itb_walker_cache.tags.data_accesses            0                       # Number of data accesses
system.cpu.itb_walker_cache.pwrStateResidencyTicks::UNDEFINED  90327654000                       # Cumulative time (in ticks) in various power states
system.cpu.itb_walker_cache.blocked_cycles::no_mshrs            0                       # number of cycles access was blocked
system.cpu.itb_walker_cache.blocked_cycles::no_targets            0                       # number of cycles access was blocked
system.cpu.itb_walker_cache.blocked::no_mshrs            0                       # number of cycles access was blocked
system.cpu.itb_walker_cache.blocked::no_targets            0                       # number of cycles access was blocked
system.cpu.itb_walker_cache.avg_blocked_cycles::no_mshrs          nan                       # average number of cycles each access was blocked
system.cpu.itb_walker_cache.avg_blocked_cycles::no_targets          nan                       # average number of cycles each access was blocked
system.cpu.itb_walker_cache.replacements            0                       # number of replacements
system.l2.tags.pwrStateResidencyTicks::UNDEFINED  90327654000                       # Cumulative time (in ticks) in various power states
system.l2.tags.tagsinuse                  2018.868044                       # Cycle average of tags in use
system.l2.tags.total_refs                      100813                       # Total number of references to valid blocks.
system.l2.tags.sampled_refs                     24189                       # Sample count of references to valid blocks.
system.l2.tags.avg_refs                      4.167721                       # Average number of references to valid blocks.
system.l2.tags.warmup_cycle                    428500                       # Cycle when the warmup percentage was hit.
system.l2.tags.occ_blocks::writebacks        1.411344                       # Average occupied blocks per requestor
system.l2.tags.occ_blocks::cpu.inst         11.256348                       # Average occupied blocks per requestor
system.l2.tags.occ_blocks::cpu.data       2006.200352                       # Average occupied blocks per requestor
system.l2.tags.occ_percent::writebacks       0.000689                       # Average percentage of cache occupancy
system.l2.tags.occ_percent::cpu.inst         0.005496                       # Average percentage of cache occupancy
system.l2.tags.occ_percent::cpu.data         0.979590                       # Average percentage of cache occupancy
system.l2.tags.occ_percent::total            0.985775                       # Average percentage of cache occupancy
system.l2.tags.occ_task_id_blocks::1024          2048                       # Occupied blocks per task id
system.l2.tags.age_task_id_blocks_1024::0           52                       # Occupied blocks per task id
system.l2.tags.age_task_id_blocks_1024::1           22                       # Occupied blocks per task id
system.l2.tags.age_task_id_blocks_1024::2           33                       # Occupied blocks per task id
system.l2.tags.age_task_id_blocks_1024::3           59                       # Occupied blocks per task id
system.l2.tags.age_task_id_blocks_1024::4         1882                       # Occupied blocks per task id
system.l2.tags.occ_task_id_percent::1024            1                       # Percentage of cache occupancy per task id
system.l2.tags.tag_accesses                    830693                       # Number of tag accesses
system.l2.tags.data_accesses                   830693                       # Number of data accesses
system.l2.pwrStateResidencyTicks::UNDEFINED  90327654000                       # Cumulative time (in ticks) in various power states
system.l2.WritebackDirty_hits::writebacks        43415                       # number of WritebackDirty hits
system.l2.WritebackDirty_hits::total            43415                       # number of WritebackDirty hits
system.l2.WritebackClean_hits::writebacks           46                       # number of WritebackClean hits
system.l2.WritebackClean_hits::total               46                       # number of WritebackClean hits
system.l2.UpgradeReq_hits::cpu.data             10069                       # number of UpgradeReq hits
system.l2.UpgradeReq_hits::total                10069                       # number of UpgradeReq hits
system.l2.ReadExReq_hits::cpu.data                259                       # number of ReadExReq hits
system.l2.ReadExReq_hits::total                   259                       # number of ReadExReq hits
system.l2.ReadSharedReq_hits::cpu.data          21359                       # number of ReadSharedReq hits
system.l2.ReadSharedReq_hits::total             21359                       # number of ReadSharedReq hits
system.l2.demand_hits::cpu.data                 21618                       # number of demand (read+write) hits
system.l2.demand_hits::total                    21618                       # number of demand (read+write) hits
system.l2.overall_hits::cpu.data                21618                       # number of overall hits
system.l2.overall_hits::total                   21618                       # number of overall hits
system.l2.ReadExReq_misses::cpu.data             6439                       # number of ReadExReq misses
system.l2.ReadExReq_misses::total                6439                       # number of ReadExReq misses
system.l2.ReadCleanReq_misses::cpu.inst           356                       # number of ReadCleanReq misses
system.l2.ReadCleanReq_misses::total              356                       # number of ReadCleanReq misses
system.l2.ReadSharedReq_misses::cpu.data        17370                       # number of ReadSharedReq misses
system.l2.ReadSharedReq_misses::total           17370                       # number of ReadSharedReq misses
system.l2.demand_misses::cpu.inst                 356                       # number of demand (read+write) misses
system.l2.demand_misses::cpu.data               23809                       # number of demand (read+write) misses
system.l2.demand_misses::total                  24165                       # number of demand (read+write) misses
system.l2.overall_misses::cpu.inst                356                       # number of overall misses
system.l2.overall_misses::cpu.data              23809                       # number of overall misses
system.l2.overall_misses::total                 24165                       # number of overall misses
system.l2.ReadExReq_miss_latency::cpu.data    724070500                       # number of ReadExReq miss cycles
system.l2.ReadExReq_miss_latency::total     724070500                       # number of ReadExReq miss cycles
system.l2.ReadCleanReq_miss_latency::cpu.inst     57685000                       # number of ReadCleanReq miss cycles
system.l2.ReadCleanReq_miss_latency::total     57685000                       # number of ReadCleanReq miss cycles
system.l2.ReadSharedReq_miss_latency::cpu.data   2518216500                       # number of ReadSharedReq miss cycles
system.l2.ReadSharedReq_miss_latency::total   2518216500                       # number of ReadSharedReq miss cycles
system.l2.demand_miss_latency::cpu.inst      57685000                       # number of demand (read+write) miss cycles
system.l2.demand_miss_latency::cpu.data    3242287000                       # number of demand (read+write) miss cycles
system.l2.demand_miss_latency::total       3299972000                       # number of demand (read+write) miss cycles
system.l2.overall_miss_latency::cpu.inst     57685000                       # number of overall miss cycles
system.l2.overall_miss_latency::cpu.data   3242287000                       # number of overall miss cycles
system.l2.overall_miss_latency::total      3299972000                       # number of overall miss cycles
system.l2.WritebackDirty_accesses::writebacks        43415                       # number of WritebackDirty accesses(hits+misses)
system.l2.WritebackDirty_accesses::total        43415                       # number of WritebackDirty accesses(hits+misses)
system.l2.WritebackClean_accesses::writebacks           46                       # number of WritebackClean accesses(hits+misses)
system.l2.WritebackClean_accesses::total           46                       # number of WritebackClean accesses(hits+misses)
system.l2.UpgradeReq_accesses::cpu.data         10069                       # number of UpgradeReq accesses(hits+misses)
system.l2.UpgradeReq_accesses::total            10069                       # number of UpgradeReq accesses(hits+misses)
system.l2.ReadExReq_accesses::cpu.data           6698                       # number of ReadExReq accesses(hits+misses)
system.l2.ReadExReq_accesses::total              6698                       # number of ReadExReq accesses(hits+misses)
system.l2.ReadCleanReq_accesses::cpu.inst          356                       # number of ReadCleanReq accesses(hits+misses)
system.l2.ReadCleanReq_accesses::total            356                       # number of ReadCleanReq accesses(hits+misses)
system.l2.ReadSharedReq_accesses::cpu.data        38729                       # number of ReadSharedReq accesses(hits+misses)
system.l2.ReadSharedReq_accesses::total         38729                       # number of ReadSharedReq accesses(hits+misses)
system.l2.demand_accesses::cpu.inst               356                       # number of demand (read+write) accesses
system.l2.demand_accesses::cpu.data             45427                       # number of demand (read+write) accesses
system.l2.demand_accesses::total                45783                       # number of demand (read+write) accesses
system.l2.overall_accesses::cpu.inst              356                       # number of overall (read+write) accesses
system.l2.overall_accesses::cpu.data            45427                       # number of overall (read+write) accesses
system.l2.overall_accesses::total               45783                       # number of overall (read+write) accesses
system.l2.ReadExReq_miss_rate::cpu.data      0.961332                       # miss rate for ReadExReq accesses
system.l2.ReadExReq_miss_rate::total         0.961332                       # miss rate for ReadExReq accesses
system.l2.ReadCleanReq_miss_rate::cpu.inst            1                       # miss rate for ReadCleanReq accesses
system.l2.ReadCleanReq_miss_rate::total             1                       # miss rate for ReadCleanReq accesses
system.l2.ReadSharedReq_miss_rate::cpu.data     0.448501                       # miss rate for ReadSharedReq accesses
system.l2.ReadSharedReq_miss_rate::total     0.448501                       # miss rate for ReadSharedReq accesses
system.l2.demand_miss_rate::cpu.inst                1                       # miss rate for demand accesses
system.l2.demand_miss_rate::cpu.data         0.524116                       # miss rate for demand accesses
system.l2.demand_miss_rate::total            0.527816                       # miss rate for demand accesses
system.l2.overall_miss_rate::cpu.inst               1                       # miss rate for overall accesses
system.l2.overall_miss_rate::cpu.data        0.524116                       # miss rate for overall accesses
system.l2.overall_miss_rate::total           0.527816                       # miss rate for overall accesses
system.l2.ReadExReq_avg_miss_latency::cpu.data 112450.768753                       # average ReadExReq miss latency
system.l2.ReadExReq_avg_miss_latency::total 112450.768753                       # average ReadExReq miss latency
system.l2.ReadCleanReq_avg_miss_latency::cpu.inst 162036.516854                       # average ReadCleanReq miss latency
system.l2.ReadCleanReq_avg_miss_latency::total 162036.516854                       # average ReadCleanReq miss latency
system.l2.ReadSharedReq_avg_miss_latency::cpu.data 144975.043178                       # average ReadSharedReq miss latency
system.l2.ReadSharedReq_avg_miss_latency::total 144975.043178                       # average ReadSharedReq miss latency
system.l2.demand_avg_miss_latency::cpu.inst 162036.516854                       # average overall miss latency
system.l2.demand_avg_miss_latency::cpu.data 136179.049939                       # average overall miss latency
system.l2.demand_avg_miss_latency::total 136559.983447                       # average overall miss latency
system.l2.overall_avg_miss_latency::cpu.inst 162036.516854                       # average overall miss latency
system.l2.overall_avg_miss_latency::cpu.data 136179.049939                       # average overall miss latency
system.l2.overall_avg_miss_latency::total 136559.983447                       # average overall miss latency
system.l2.blocked_cycles::no_mshrs                  0                       # number of cycles access was blocked
system.l2.blocked_cycles::no_targets                0                       # number of cycles access was blocked
system.l2.blocked::no_mshrs                         0                       # number of cycles access was blocked
system.l2.blocked::no_targets                       0                       # number of cycles access was blocked
system.l2.avg_blocked_cycles::no_mshrs            nan                       # average number of cycles each access was blocked
system.l2.avg_blocked_cycles::no_targets          nan                       # average number of cycles each access was blocked
system.l2.writebacks::writebacks                21646                       # number of writebacks
system.l2.writebacks::total                     21646                       # number of writebacks
system.l2.ReadExReq_mshr_misses::cpu.data         6439                       # number of ReadExReq MSHR misses
system.l2.ReadExReq_mshr_misses::total           6439                       # number of ReadExReq MSHR misses
system.l2.ReadCleanReq_mshr_misses::cpu.inst          356                       # number of ReadCleanReq MSHR misses
system.l2.ReadCleanReq_mshr_misses::total          356                       # number of ReadCleanReq MSHR misses
system.l2.ReadSharedReq_mshr_misses::cpu.data        17370                       # number of ReadSharedReq MSHR misses
system.l2.ReadSharedReq_mshr_misses::total        17370                       # number of ReadSharedReq MSHR misses
system.l2.demand_mshr_misses::cpu.inst            356                       # number of demand (read+write) MSHR misses
system.l2.demand_mshr_misses::cpu.data          23809                       # number of demand (read+write) MSHR misses
system.l2.demand_mshr_misses::total             24165                       # number of demand (read+write) MSHR misses
system.l2.overall_mshr_misses::cpu.inst           356                       # number of overall MSHR misses
system.l2.overall_mshr_misses::cpu.data         23809                       # number of overall MSHR misses
system.l2.overall_mshr_misses::total            24165                       # number of overall MSHR misses
system.l2.ReadExReq_mshr_miss_latency::cpu.data    659680500                       # number of ReadExReq MSHR miss cycles
system.l2.ReadExReq_mshr_miss_latency::total    659680500                       # number of ReadExReq MSHR miss cycles
system.l2.ReadCleanReq_mshr_miss_latency::cpu.inst     54125000                       # number of ReadCleanReq MSHR miss cycles
system.l2.ReadCleanReq_mshr_miss_latency::total     54125000                       # number of ReadCleanReq MSHR miss cycles
system.l2.ReadSharedReq_mshr_miss_latency::cpu.data   2344516500                       # number of ReadSharedReq MSHR miss cycles
system.l2.ReadSharedReq_mshr_miss_latency::total   2344516500                       # number of ReadSharedReq MSHR miss cycles
system.l2.demand_mshr_miss_latency::cpu.inst     54125000                       # number of demand (read+write) MSHR miss cycles
system.l2.demand_mshr_miss_latency::cpu.data   3004197000                       # number of demand (read+write) MSHR miss cycles
system.l2.demand_mshr_miss_latency::total   3058322000                       # number of demand (read+write) MSHR miss cycles
system.l2.overall_mshr_miss_latency::cpu.inst     54125000                       # number of overall MSHR miss cycles
system.l2.overall_mshr_miss_latency::cpu.data   3004197000                       # number of overall MSHR miss cycles
system.l2.overall_mshr_miss_latency::total   3058322000                       # number of overall MSHR miss cycles
system.l2.ReadExReq_mshr_miss_rate::cpu.data     0.961332                       # mshr miss rate for ReadExReq accesses
system.l2.ReadExReq_mshr_miss_rate::total     0.961332                       # mshr miss rate for ReadExReq accesses
system.l2.ReadCleanReq_mshr_miss_rate::cpu.inst            1                       # mshr miss rate for ReadCleanReq accesses
system.l2.ReadCleanReq_mshr_miss_rate::total            1                       # mshr miss rate for ReadCleanReq accesses
system.l2.ReadSharedReq_mshr_miss_rate::cpu.data     0.448501                       # mshr miss rate for ReadSharedReq accesses
system.l2.ReadSharedReq_mshr_miss_rate::total     0.448501                       # mshr miss rate for ReadSharedReq accesses
system.l2.demand_mshr_miss_rate::cpu.inst            1                       # mshr miss rate for demand accesses
system.l2.demand_mshr_miss_rate::cpu.data     0.524116                       # mshr miss rate for demand accesses
system.l2.demand_mshr_miss_rate::total       0.527816                       # mshr miss rate for demand accesses
system.l2.overall_mshr_miss_rate::cpu.inst            1                       # mshr miss rate for overall accesses
system.l2.overall_mshr_miss_rate::cpu.data     0.524116                       # mshr miss rate for overall accesses
system.l2.overall_mshr_miss_rate::total      0.527816                       # mshr miss rate for overall accesses
system.l2.ReadExReq_avg_mshr_miss_latency::cpu.data 102450.768753                       # average ReadExReq mshr miss latency
system.l2.ReadExReq_avg_mshr_miss_latency::total 102450.768753                       # average ReadExReq mshr miss latency
system.l2.ReadCleanReq_avg_mshr_miss_latency::cpu.inst 152036.516854                       # average ReadCleanReq mshr miss latency
system.l2.ReadCleanReq_avg_mshr_miss_latency::total 152036.516854                       # average ReadCleanReq mshr miss latency
system.l2.ReadSharedReq_avg_mshr_miss_latency::cpu.data 134975.043178                       # average ReadSharedReq mshr miss latency
system.l2.ReadSharedReq_avg_mshr_miss_latency::total 134975.043178                       # average ReadSharedReq mshr miss latency
system.l2.demand_avg_mshr_miss_latency::cpu.inst 152036.516854                       # average overall mshr miss latency
system.l2.demand_avg_mshr_miss_latency::cpu.data 126179.049939                       # average overall mshr miss latency
system.l2.demand_avg_mshr_miss_latency::total 126559.983447                       # average overall mshr miss latency
system.l2.overall_avg_mshr_miss_latency::cpu.inst 152036.516854                       # average overall mshr miss latency
system.l2.overall_avg_mshr_miss_latency::cpu.data 126179.049939                       # average overall mshr miss latency
system.l2.overall_avg_mshr_miss_latency::total 126559.983447                       # average overall mshr miss latency
system.l2.replacements                          22141                       # number of replacements
system.l3.tags.pwrStateResidencyTicks::UNDEFINED  90327654000                       # Cumulative time (in ticks) in various power states
system.l3.tags.tagsinuse                  3933.620723                       # Cycle average of tags in use
system.l3.tags.total_refs                       45912                       # Total number of references to valid blocks.
system.l3.tags.sampled_refs                     21589                       # Sample count of references to valid blocks.
system.l3.tags.avg_refs                      2.126639                       # Average number of references to valid blocks.
system.l3.tags.warmup_cycle                    418000                       # Cycle when the warmup percentage was hit.
system.l3.tags.occ_blocks::writebacks      791.313300                       # Average occupied blocks per requestor
system.l3.tags.occ_blocks::cpu.inst         26.465646                       # Average occupied blocks per requestor
system.l3.tags.occ_blocks::cpu.data       3115.841777                       # Average occupied blocks per requestor
system.l3.tags.occ_percent::writebacks       0.193192                       # Average percentage of cache occupancy
system.l3.tags.occ_percent::cpu.inst         0.006461                       # Average percentage of cache occupancy
system.l3.tags.occ_percent::cpu.data         0.760704                       # Average percentage of cache occupancy
system.l3.tags.occ_percent::total            0.960357                       # Average percentage of cache occupancy
system.l3.tags.occ_task_id_blocks::1024          4096                       # Occupied blocks per task id
system.l3.tags.age_task_id_blocks_1024::0           43                       # Occupied blocks per task id
system.l3.tags.age_task_id_blocks_1024::1           21                       # Occupied blocks per task id
system.l3.tags.age_task_id_blocks_1024::2           24                       # Occupied blocks per task id
system.l3.tags.age_task_id_blocks_1024::3           39                       # Occupied blocks per task id
system.l3.tags.age_task_id_blocks_1024::4         3969                       # Occupied blocks per task id
system.l3.tags.occ_task_id_percent::1024            1                       # Percentage of cache occupancy per task id
system.l3.tags.tag_accesses                    113609                       # Number of tag accesses
system.l3.tags.data_accesses                   113609                       # Number of data accesses
system.l3.pwrStateResidencyTicks::UNDEFINED  90327654000                       # Cumulative time (in ticks) in various power states
system.l3.WritebackDirty_hits::writebacks        21646                       # number of WritebackDirty hits
system.l3.WritebackDirty_hits::total            21646                       # number of WritebackDirty hits
system.l3.ReadExReq_hits::cpu.data                 40                       # number of ReadExReq hits
system.l3.ReadExReq_hits::total                    40                       # number of ReadExReq hits
system.l3.ReadSharedReq_hits::cpu.data          11023                       # number of ReadSharedReq hits
system.l3.ReadSharedReq_hits::total             11023                       # number of ReadSharedReq hits
system.l3.demand_hits::cpu.data                 11063                       # number of demand (read+write) hits
system.l3.demand_hits::total                    11063                       # number of demand (read+write) hits
system.l3.overall_hits::cpu.data                11063                       # number of overall hits
system.l3.overall_hits::total                   11063                       # number of overall hits
system.l3.ReadExReq_misses::cpu.data             6399                       # number of ReadExReq misses
system.l3.ReadExReq_misses::total                6399                       # number of ReadExReq misses
system.l3.ReadSharedReq_misses::cpu.inst          356                       # number of ReadSharedReq misses
system.l3.ReadSharedReq_misses::cpu.data         6347                       # number of ReadSharedReq misses
system.l3.ReadSharedReq_misses::total            6703                       # number of ReadSharedReq misses
system.l3.demand_misses::cpu.inst                 356                       # number of demand (read+write) misses
system.l3.demand_misses::cpu.data               12746                       # number of demand (read+write) misses
system.l3.demand_misses::total                  13102                       # number of demand (read+write) misses
system.l3.overall_misses::cpu.inst                356                       # number of overall misses
system.l3.overall_misses::cpu.data              12746                       # number of overall misses
system.l3.overall_misses::total                 13102                       # number of overall misses
system.l3.ReadExReq_miss_latency::cpu.data    588431500                       # number of ReadExReq miss cycles
system.l3.ReadExReq_miss_latency::total     588431500                       # number of ReadExReq miss cycles
system.l3.ReadSharedReq_miss_latency::cpu.inst     50209000                       # number of ReadSharedReq miss cycles
system.l3.ReadSharedReq_miss_latency::cpu.data   2029955000                       # number of ReadSharedReq miss cycles
system.l3.ReadSharedReq_miss_latency::total   2080164000                       # number of ReadSharedReq miss cycles
system.l3.demand_miss_latency::cpu.inst      50209000                       # number of demand (read+write) miss cycles
system.l3.demand_miss_latency::cpu.data    2618386500                       # number of demand (read+write) miss cycles
system.l3.demand_miss_latency::total       2668595500                       # number of demand (read+write) miss cycles
system.l3.overall_miss_latency::cpu.inst     50209000                       # number of overall miss cycles
system.l3.overall_miss_latency::cpu.data   2618386500                       # number of overall miss cycles
system.l3.overall_miss_latency::total      2668595500                       # number of overall miss cycles
system.l3.WritebackDirty_accesses::writebacks        21646                       # number of WritebackDirty accesses(hits+misses)
system.l3.WritebackDirty_accesses::total        21646                       # number of WritebackDirty accesses(hits+misses)
system.l3.ReadExReq_accesses::cpu.data           6439                       # number of ReadExReq accesses(hits+misses)
system.l3.ReadExReq_accesses::total              6439                       # number of ReadExReq accesses(hits+misses)
system.l3.ReadSharedReq_accesses::cpu.inst          356                       # number of ReadSharedReq accesses(hits+misses)
system.l3.ReadSharedReq_accesses::cpu.data        17370                       # number of ReadSharedReq accesses(hits+misses)
system.l3.ReadSharedReq_accesses::total         17726                       # number of ReadSharedReq accesses(hits+misses)
system.l3.demand_accesses::cpu.inst               356                       # number of demand (read+write) accesses
system.l3.demand_accesses::cpu.data             23809                       # number of demand (read+write) accesses
system.l3.demand_accesses::total                24165                       # number of demand (read+write) accesses
system.l3.overall_accesses::cpu.inst              356                       # number of overall (read+write) accesses
system.l3.overall_accesses::cpu.data            23809                       # number of overall (read+write) accesses
system.l3.overall_accesses::total               24165                       # number of overall (read+write) accesses
system.l3.ReadExReq_miss_rate::cpu.data      0.993788                       # miss rate for ReadExReq accesses
system.l3.ReadExReq_miss_rate::total         0.993788                       # miss rate for ReadExReq accesses
system.l3.ReadSharedReq_miss_rate::cpu.inst            1                       # miss rate for ReadSharedReq accesses
system.l3.ReadSharedReq_miss_rate::cpu.data     0.365400                       # miss rate for ReadSharedReq accesses
system.l3.ReadSharedReq_miss_rate::total     0.378145                       # miss rate for ReadSharedReq accesses
system.l3.demand_miss_rate::cpu.inst                1                       # miss rate for demand accesses
system.l3.demand_miss_rate::cpu.data         0.535344                       # miss rate for demand accesses
system.l3.demand_miss_rate::total            0.542189                       # miss rate for demand accesses
system.l3.overall_miss_rate::cpu.inst               1                       # miss rate for overall accesses
system.l3.overall_miss_rate::cpu.data        0.535344                       # miss rate for overall accesses
system.l3.overall_miss_rate::total           0.542189                       # miss rate for overall accesses
system.l3.ReadExReq_avg_miss_latency::cpu.data 91956.790123                       # average ReadExReq miss latency
system.l3.ReadExReq_avg_miss_latency::total 91956.790123                       # average ReadExReq miss latency
system.l3.ReadSharedReq_avg_miss_latency::cpu.inst 141036.516854                       # average ReadSharedReq miss latency
system.l3.ReadSharedReq_avg_miss_latency::cpu.data 319829.053096                       # average ReadSharedReq miss latency
system.l3.ReadSharedReq_avg_miss_latency::total 310333.283604                       # average ReadSharedReq miss latency
system.l3.demand_avg_miss_latency::cpu.inst 141036.516854                       # average overall miss latency
system.l3.demand_avg_miss_latency::cpu.data 205428.095089                       # average overall miss latency
system.l3.demand_avg_miss_latency::total 203678.484201                       # average overall miss latency
system.l3.overall_avg_miss_latency::cpu.inst 141036.516854                       # average overall miss latency
system.l3.overall_avg_miss_latency::cpu.data 205428.095089                       # average overall miss latency
system.l3.overall_avg_miss_latency::total 203678.484201                       # average overall miss latency
system.l3.blocked_cycles::no_mshrs                  0                       # number of cycles access was blocked
system.l3.blocked_cycles::no_targets                0                       # number of cycles access was blocked
system.l3.blocked::no_mshrs                         0                       # number of cycles access was blocked
system.l3.blocked::no_targets                       0                       # number of cycles access was blocked
system.l3.avg_blocked_cycles::no_mshrs            nan                       # average number of cycles each access was blocked
system.l3.avg_blocked_cycles::no_targets          nan                       # average number of cycles each access was blocked
system.l3.writebacks::writebacks                 7628                       # number of writebacks
system.l3.writebacks::total                      7628                       # number of writebacks
system.l3.CleanEvict_mshr_misses::writebacks           98                       # number of CleanEvict MSHR misses
system.l3.CleanEvict_mshr_misses::total            98                       # number of CleanEvict MSHR misses
system.l3.ReadExReq_mshr_misses::cpu.data         6399                       # number of ReadExReq MSHR misses
system.l3.ReadExReq_mshr_misses::total           6399                       # number of ReadExReq MSHR misses
system.l3.ReadSharedReq_mshr_misses::cpu.inst          356                       # number of ReadSharedReq MSHR misses
system.l3.ReadSharedReq_mshr_misses::cpu.data         6347                       # number of ReadSharedReq MSHR misses
system.l3.ReadSharedReq_mshr_misses::total         6703                       # number of ReadSharedReq MSHR misses
system.l3.demand_mshr_misses::cpu.inst            356                       # number of demand (read+write) MSHR misses
system.l3.demand_mshr_misses::cpu.data          12746                       # number of demand (read+write) MSHR misses
system.l3.demand_mshr_misses::total             13102                       # number of demand (read+write) MSHR misses
system.l3.overall_mshr_misses::cpu.inst           356                       # number of overall MSHR misses
system.l3.overall_mshr_misses::cpu.data         12746                       # number of overall MSHR misses
system.l3.overall_mshr_misses::total            13102                       # number of overall MSHR misses
system.l3.ReadExReq_mshr_miss_latency::cpu.data    524441500                       # number of ReadExReq MSHR miss cycles
system.l3.ReadExReq_mshr_miss_latency::total    524441500                       # number of ReadExReq MSHR miss cycles
system.l3.ReadSharedReq_mshr_miss_latency::cpu.inst     46649000                       # number of ReadSharedReq MSHR miss cycles
system.l3.ReadSharedReq_mshr_miss_latency::cpu.data   1966485000                       # number of ReadSharedReq MSHR miss cycles
system.l3.ReadSharedReq_mshr_miss_latency::total   2013134000                       # number of ReadSharedReq MSHR miss cycles
system.l3.demand_mshr_miss_latency::cpu.inst     46649000                       # number of demand (read+write) MSHR miss cycles
system.l3.demand_mshr_miss_latency::cpu.data   2490926500                       # number of demand (read+write) MSHR miss cycles
system.l3.demand_mshr_miss_latency::total   2537575500                       # number of demand (read+write) MSHR miss cycles
system.l3.overall_mshr_miss_latency::cpu.inst     46649000                       # number of overall MSHR miss cycles
system.l3.overall_mshr_miss_latency::cpu.data   2490926500                       # number of overall MSHR miss cycles
system.l3.overall_mshr_miss_latency::total   2537575500                       # number of overall MSHR miss cycles
system.l3.CleanEvict_mshr_miss_rate::writebacks          inf                       # mshr miss rate for CleanEvict accesses
system.l3.CleanEvict_mshr_miss_rate::total          inf                       # mshr miss rate for CleanEvict accesses
system.l3.ReadExReq_mshr_miss_rate::cpu.data     0.993788                       # mshr miss rate for ReadExReq accesses
system.l3.ReadExReq_mshr_miss_rate::total     0.993788                       # mshr miss rate for ReadExReq accesses
system.l3.ReadSharedReq_mshr_miss_rate::cpu.inst            1                       # mshr miss rate for ReadSharedReq accesses
system.l3.ReadSharedReq_mshr_miss_rate::cpu.data     0.365400                       # mshr miss rate for ReadSharedReq accesses
system.l3.ReadSharedReq_mshr_miss_rate::total     0.378145                       # mshr miss rate for ReadSharedReq accesses
system.l3.demand_mshr_miss_rate::cpu.inst            1                       # mshr miss rate for demand accesses
system.l3.demand_mshr_miss_rate::cpu.data     0.535344                       # mshr miss rate for demand accesses
system.l3.demand_mshr_miss_rate::total       0.542189                       # mshr miss rate for demand accesses
system.l3.overall_mshr_miss_rate::cpu.inst            1                       # mshr miss rate for overall accesses
system.l3.overall_mshr_miss_rate::cpu.data     0.535344                       # mshr miss rate for overall accesses
system.l3.overall_mshr_miss_rate::total      0.542189                       # mshr miss rate for overall accesses
system.l3.ReadExReq_avg_mshr_miss_latency::cpu.data 81956.790123                       # average ReadExReq mshr miss latency
system.l3.ReadExReq_avg_mshr_miss_latency::total 81956.790123                       # average ReadExReq mshr miss latency
system.l3.ReadSharedReq_avg_mshr_miss_latency::cpu.inst 131036.516854                       # average ReadSharedReq mshr miss latency
system.l3.ReadSharedReq_avg_mshr_miss_latency::cpu.data 309829.053096                       # average ReadSharedReq mshr miss latency
system.l3.ReadSharedReq_avg_mshr_miss_latency::total 300333.283604                       # average ReadSharedReq mshr miss latency
system.l3.demand_avg_mshr_miss_latency::cpu.inst 131036.516854                       # average overall mshr miss latency
system.l3.demand_avg_mshr_miss_latency::cpu.data 195428.095089                       # average overall mshr miss latency
system.l3.demand_avg_mshr_miss_latency::total 193678.484201                       # average overall mshr miss latency
system.l3.overall_avg_mshr_miss_latency::cpu.inst 131036.516854                       # average overall mshr miss latency
system.l3.overall_avg_mshr_miss_latency::cpu.data 195428.095089                       # average overall mshr miss latency
system.l3.overall_avg_mshr_miss_latency::total 193678.484201                       # average overall mshr miss latency
system.l3.replacements                          17493                       # number of replacements
system.membus.snoop_filter.tot_requests         23384                       # Total number of requests made to the snoop filter.
system.membus.snoop_filter.hit_single_requests        10282                       # Number of requests hitting in the snoop filter with a single holder of the requested data.
system.membus.snoop_filter.hit_multi_requests            0                       # Number of requests hitting in the snoop filter with multiple (>1) holders of the requested data.
system.membus.snoop_filter.tot_snoops               0                       # Total number of snoops made to the snoop filter.
system.membus.snoop_filter.hit_single_snoops            0                       # Number of snoops hitting in the snoop filter with a single holder of the requested data.
system.membus.snoop_filter.hit_multi_snoops            0                       # Number of snoops hitting in the snoop filter with multiple (>1) holders of the requested data.
system.membus.pwrStateResidencyTicks::UNDEFINED  90327654000                       # Cumulative time (in ticks) in various power states
system.membus.trans_dist::ReadResp               6703                       # Transaction distribution
system.membus.trans_dist::WritebackDirty         7628                       # Transaction distribution
system.membus.trans_dist::CleanEvict              184                       # Transaction distribution
system.membus.trans_dist::ReadExReq              6399                       # Transaction distribution
system.membus.trans_dist::ReadExResp             6399                       # Transaction distribution
system.membus.trans_dist::ReadSharedReq          6703                       # Transaction distribution
system.membus.pkt_count_system.l3.mem_side::system.mem_ctrls.port        34016                       # Packet count per connected master and slave (bytes)
system.membus.pkt_count_system.l3.mem_side::total        34016                       # Packet count per connected master and slave (bytes)
system.membus.pkt_count::total                  34016                       # Packet count per connected master and slave (bytes)
system.membus.pkt_size_system.l3.mem_side::system.mem_ctrls.port      1326720                       # Cumulative packet size per connected master and slave (bytes)
system.membus.pkt_size_system.l3.mem_side::total      1326720                       # Cumulative packet size per connected master and slave (bytes)
system.membus.pkt_size::total                 1326720                       # Cumulative packet size per connected master and slave (bytes)
system.membus.snoops                                0                       # Total snoops (count)
system.membus.snoopTraffic                          0                       # Total snoop traffic (bytes)
system.membus.snoop_fanout::samples             13102                       # Request fanout histogram
system.membus.snoop_fanout::mean                    0                       # Request fanout histogram
system.membus.snoop_fanout::stdev                   0                       # Request fanout histogram
system.membus.snoop_fanout::underflows              0      0.00%      0.00% # Request fanout histogram
system.membus.snoop_fanout::0                   13102    100.00%    100.00% # Request fanout histogram
system.membus.snoop_fanout::1                       0      0.00%    100.00% # Request fanout histogram
system.membus.snoop_fanout::overflows               0      0.00%    100.00% # Request fanout histogram
system.membus.snoop_fanout::min_value               0                       # Request fanout histogram
system.membus.snoop_fanout::max_value               0                       # Request fanout histogram
system.membus.snoop_fanout::total               13102                       # Request fanout histogram
system.membus.reqLayer2.occupancy            54006500                       # Layer occupancy (ticks)
system.membus.reqLayer2.utilization               0.1                       # Layer utilization (%)
system.membus.respLayer1.occupancy           65514500                       # Layer occupancy (ticks)
system.membus.respLayer1.utilization              0.1                       # Layer utilization (%)
system.tol2bus.snoop_filter.tot_requests       100813                       # Total number of requests made to the snoop filter.
system.tol2bus.snoop_filter.hit_single_requests        55030                       # Number of requests hitting in the snoop filter with a single holder of the requested data.
system.tol2bus.snoop_filter.hit_multi_requests            0                       # Number of requests hitting in the snoop filter with multiple (>1) holders of the requested data.
system.tol2bus.snoop_filter.tot_snoops           4788                       # Total number of snoops made to the snoop filter.
system.tol2bus.snoop_filter.hit_single_snoops         4788                       # Number of snoops hitting in the snoop filter with a single holder of the requested data.
system.tol2bus.snoop_filter.hit_multi_snoops            0                       # Number of snoops hitting in the snoop filter with multiple (>1) holders of the requested data.
system.tol2bus.pwrStateResidencyTicks::UNDEFINED  90327654000                       # Cumulative time (in ticks) in various power states
system.tol2bus.trans_dist::ReadResp             39085                       # Transaction distribution
system.tol2bus.trans_dist::WritebackDirty        65061                       # Transaction distribution
system.tol2bus.trans_dist::WritebackClean           46                       # Transaction distribution
system.tol2bus.trans_dist::CleanEvict           11774                       # Transaction distribution
system.tol2bus.trans_dist::UpgradeReq           10069                       # Transaction distribution
system.tol2bus.trans_dist::UpgradeResp          10069                       # Transaction distribution
system.tol2bus.trans_dist::ReadExReq             6698                       # Transaction distribution
system.tol2bus.trans_dist::ReadExResp            6698                       # Transaction distribution
system.tol2bus.trans_dist::ReadCleanReq           356                       # Transaction distribution
system.tol2bus.trans_dist::ReadSharedReq        38729                       # Transaction distribution
system.tol2bus.pkt_count_system.cpu.icache.mem_side::system.l2.cpu_side          758                       # Packet count per connected master and slave (bytes)
system.tol2bus.pkt_count_system.cpu.dcache.mem_side::system.l2.cpu_side       155907                       # Packet count per connected master and slave (bytes)
system.tol2bus.pkt_count::total                156665                       # Packet count per connected master and slave (bytes)
system.tol2bus.pkt_size_system.cpu.icache.mem_side::system.l2.cpu_side        25728                       # Cumulative packet size per connected master and slave (bytes)
system.tol2bus.pkt_size_system.cpu.dcache.mem_side::system.l2.cpu_side      5685888                       # Cumulative packet size per connected master and slave (bytes)
system.tol2bus.pkt_size::total                5711616                       # Cumulative packet size per connected master and slave (bytes)
system.tol2bus.snoops                           31920                       # Total snoops (count)
system.tol2bus.snoopTraffic                   1385344                       # Total snoop traffic (bytes)
system.tol2bus.snoop_fanout::samples            87772                       # Request fanout histogram
system.tol2bus.snoop_fanout::mean            0.054550                       # Request fanout histogram
system.tol2bus.snoop_fanout::stdev           0.227102                       # Request fanout histogram
system.tol2bus.snoop_fanout::underflows             0      0.00%      0.00% # Request fanout histogram
system.tol2bus.snoop_fanout::0                  82984     94.54%     94.54% # Request fanout histogram
system.tol2bus.snoop_fanout::1                   4788      5.46%    100.00% # Request fanout histogram
system.tol2bus.snoop_fanout::2                      0      0.00%    100.00% # Request fanout histogram
system.tol2bus.snoop_fanout::3                      0      0.00%    100.00% # Request fanout histogram
system.tol2bus.snoop_fanout::4                      0      0.00%    100.00% # Request fanout histogram
system.tol2bus.snoop_fanout::overflows              0      0.00%    100.00% # Request fanout histogram
system.tol2bus.snoop_fanout::min_value              0                       # Request fanout histogram
system.tol2bus.snoop_fanout::max_value              1                       # Request fanout histogram
system.tol2bus.snoop_fanout::total              87772                       # Request fanout histogram
system.tol2bus.reqLayer0.occupancy           93867500                       # Layer occupancy (ticks)
system.tol2bus.reqLayer0.utilization              0.1                       # Layer utilization (%)
system.tol2bus.respLayer0.occupancy            534000                       # Layer occupancy (ticks)
system.tol2bus.respLayer0.utilization             0.0                       # Layer utilization (%)
system.tol2bus.respLayer1.occupancy          73175000                       # Layer occupancy (ticks)
system.tol2bus.respLayer1.utilization             0.1                       # Layer utilization (%)
system.tol3bus.snoop_filter.tot_requests        46014                       # Total number of requests made to the snoop filter.
system.tol3bus.snoop_filter.hit_single_requests        21845                       # Number of requests hitting in the snoop filter with a single holder of the requested data.
system.tol3bus.snoop_filter.hit_multi_requests            0                       # Number of requests hitting in the snoop filter with multiple (>1) holders of the requested data.
system.tol3bus.snoop_filter.tot_snoops           9779                       # Total number of snoops made to the snoop filter.
system.tol3bus.snoop_filter.hit_single_snoops         9779                       # Number of snoops hitting in the snoop filter with a single holder of the requested data.
system.tol3bus.snoop_filter.hit_multi_snoops            0                       # Number of snoops hitting in the snoop filter with multiple (>1) holders of the requested data.
system.tol3bus.pwrStateResidencyTicks::UNDEFINED  90327654000                       # Cumulative time (in ticks) in various power states
system.tol3bus.trans_dist::ReadResp             17726                       # Transaction distribution
system.tol3bus.trans_dist::WritebackDirty        29274                       # Transaction distribution
system.tol3bus.trans_dist::CleanEvict           10064                       # Transaction distribution
system.tol3bus.trans_dist::ReadExReq             6439                       # Transaction distribution
system.tol3bus.trans_dist::ReadExResp            6439                       # Transaction distribution
system.tol3bus.trans_dist::ReadSharedReq        17726                       # Transaction distribution
system.tol3bus.pkt_count_system.l2.mem_side::system.l3.cpu_side        70175                       # Packet count per connected master and slave (bytes)
system.tol3bus.pkt_size_system.l2.mem_side::system.l3.cpu_side      2931904                       # Cumulative packet size per connected master and slave (bytes)
system.tol3bus.snoops                           17493                       # Total snoops (count)
system.tol3bus.snoopTraffic                    488192                       # Total snoop traffic (bytes)
system.tol3bus.snoop_fanout::samples            41662                       # Request fanout histogram
system.tol3bus.snoop_fanout::mean            0.234722                       # Request fanout histogram
system.tol3bus.snoop_fanout::stdev           0.423830                       # Request fanout histogram
system.tol3bus.snoop_fanout::underflows             0      0.00%      0.00% # Request fanout histogram
system.tol3bus.snoop_fanout::0                  31883     76.53%     76.53% # Request fanout histogram
system.tol3bus.snoop_fanout::1                   9779     23.47%    100.00% # Request fanout histogram
system.tol3bus.snoop_fanout::overflows              0      0.00%    100.00% # Request fanout histogram
system.tol3bus.snoop_fanout::min_value              0                       # Request fanout histogram
system.tol3bus.snoop_fanout::max_value              1                       # Request fanout histogram
system.tol3bus.snoop_fanout::total              41662                       # Request fanout histogram
system.tol3bus.reqLayer0.occupancy           44654996                       # Layer occupancy (ticks)
system.tol3bus.reqLayer0.utilization              0.0                       # Layer utilization (%)
system.tol3bus.respLayer0.occupancy          36247504                       # Layer occupancy (ticks)
system.tol3bus.respLayer0.utilization             0.0                       # Layer utilization (%)

---------- End Simulation Statistics   ----------
